Circuit: * C:\Users\imprayudi\Documents\workspace\ad8066_bandpass-filter\ltspice\ad8066_bandpass-filter_sim.asc

WARNING: Less than two connections to node COMP.  This node is used by S:U2:4.
Direct Newton iteration for .op point succeeded.

Date: Sun Dec 29 03:21:41 2019
Total elapsed time: 0.633 seconds.

tnom = 27
temp = 27
method = modified trap
totiter = 15820
traniter = 15772
tranpoints = 4502
accept = 3435
rejected = 1067
matrix size = 252
fillins = 245
solver = Normal
Thread vector: 15.8/9.7[4] 5.9/3.2[4] 2.0/1.5[4] 1.5/1.9[1]  2592/500
Matrix Compiler1: 22.91 KB object code size  7.6/4.2/[2.0]
Matrix Compiler2: 23.09 KB object code size  3.2/5.5/[1.9]

